data_generated_by_bilbao_crystallographic_server

_cell_length_a                   6.67364466 
_cell_length_b                   6.67364466 
_cell_length_c                   10.20552098 
_cell_angle_alpha                90.00000000 
_cell_angle_beta                 90.00000000 
_cell_angle_gamma                90.00000000        
_symmetry_space_group_name_H-M   'P1' 
_symmetry_Int_Tables_number      1 

loop_
_symmetry_equiv_pos_site_id
_symmetry_equiv_pos_as_xyz
1    'x,y,z'

loop_
_atom_site_label 
_atom_site_type_symbol 
_atom_site_symmetry_multiplicity 
_atom_site_Wyckoff_symbol 
_atom_site_fract_x 
_atom_site_fract_y 
_atom_site_fract_z 
Na0   Na 1 a    0.00000  0.00000  0.50000
Na1   Na 1 a    0.50000  0.50000  0.00000
Na2   Na 1 a    0.28735  0.78735  0.25000
Na3   Na 1 a    0.21265  0.28735  0.25000
Na4   Na 1 a    0.78735  0.71265  0.25000
Na5   Na 1 a    0.71265  0.21265  0.25000
Na6   Na 1 a    0.28735  0.78735  0.75000
Na7   Na 1 a    0.21265  0.28735  0.75000
Na8   Na 1 a    0.78735  0.71265  0.75000
Na9   Na 1 a    0.71265  0.21265  0.75000
Al10  Al 1 a    0.00000  0.00000  0.00000
Al11  Al 1 a    0.50000  0.50000  0.50000
Al12  Al 1 a    0.00000  0.50000  0.00000
Al13  Al 1 a    0.50000  0.00000  0.00000
Al14  Al 1 a    0.50000  0.00000  0.50000
Al15  Al 1 a    0.00000  0.50000  0.50000
H16    H 1 a    0.54380  0.82005  0.11751
H17    H 1 a    0.45620  0.17995  0.11751
H18    H 1 a    0.32005  0.04380  0.38249
H19    H 1 a    0.82005  0.45620  0.11751
H20    H 1 a    0.17995  0.54380  0.11751
H21    H 1 a    0.95620  0.32005  0.38249
H22    H 1 a    0.04380  0.67995  0.38249
H23    H 1 a    0.67995  0.95620  0.38249
H24    H 1 a    0.45620  0.17995  0.88249
H25    H 1 a    0.54380  0.82005  0.88249
H26    H 1 a    0.67995  0.95620  0.61751
H27    H 1 a    0.17995  0.54380  0.88249
H28    H 1 a    0.82005  0.45620  0.88249
H29    H 1 a    0.04380  0.67995  0.61751
H30    H 1 a    0.95620  0.32005  0.61751
H31    H 1 a    0.32005  0.04380  0.61751
H32    H 1 a    0.00000  0.00000  0.17050
H33    H 1 a    0.50000  0.50000  0.32949
H34    H 1 a    0.00000  0.00000  0.82949
H35    H 1 a    0.50000  0.50000  0.67051
H36    H 1 a    0.75237  0.07512  0.00000
H37    H 1 a    0.92488  0.75237  0.00000
H38    H 1 a    0.07512  0.24763  0.00000
H39    H 1 a    0.25237  0.42488  0.50000
H40    H 1 a    0.74763  0.57512  0.50000
H41    H 1 a    0.24763  0.92488  0.00000
H42    H 1 a    0.57512  0.25237  0.50000
H43    H 1 a    0.42488  0.74763  0.50000
