data_generated_by_bilbao_crystallographic_server

_cell_length_a                   4.86190900 
_cell_length_b                   7.82470000 
_cell_length_c                   7.87004681 
_cell_angle_alpha                90.00000000 
_cell_angle_beta                 111.80505558 
_cell_angle_gamma                90.00000000        
_symmetry_space_group_name_H-M   'P2_1/c' 
_symmetry_Int_Tables_number      14 

loop_
_symmetry_equiv_pos_site_id
_symmetry_equiv_pos_as_xyz
1    'x,y,z'
2    '-x,y+1/2,-z+1/2'
3    '-x,-y,-z'
4    'x,-y+1/2,z+1/2'

loop_
_atom_site_label 
_atom_site_type_symbol 
_atom_site_symmetry_multiplicity 
_atom_site_Wyckoff_symbol 
_atom_site_fract_x 
_atom_site_fract_y 
_atom_site_fract_z 
Li0   Li 4 e    0.42931  0.03523  0.67566
Al1   Al 4 e    0.13975  0.70216  0.43231
H2     H 4 e    0.18243  0.59904  0.26431
H3     H 4 e    0.20188  0.23598  0.62762
H4     H 4 e    0.23820  0.58259  0.61422
H5     H 4 e    0.35380  0.62799  0.97777
